<routes>
            <vType accel="1.0" decel="4.5" id="standard_car" length="5.0" minGap="2.5" maxSpeed="25" sigma="0.5" />
            <vType accel="1.0" decel="4.5" id="emergency_car" length="7.0" minGap="2.5" maxSpeed="25" sigma="0.6" />

            <route id="W_N" edges="W2TL TL2N"/>
            <route id="W_E" edges="W2TL TL2E"/>
            <route id="W_S" edges="W2TL TL2S"/>
            <route id="N_W" edges="N2TL TL2W"/>
            <route id="N_E" edges="N2TL TL2E"/>
            <route id="N_S" edges="N2TL TL2S"/>
            <route id="E_W" edges="E2TL TL2W"/>
            <route id="E_N" edges="E2TL TL2N"/>
            <route id="E_S" edges="E2TL TL2S"/>
            <route id="S_W" edges="S2TL TL2W"/>
            <route id="S_N" edges="S2TL TL2N"/>
            <route id="S_E" edges="S2TL TL2E"/>
    <vehicle id="N_S_0" type="standard_car" route="N_S" depart="6.0" departLane="random" departSpeed="10" />
    <vehicle id="S_N_1" type="standard_car" route="S_N" depart="6.0" departLane="random" departSpeed="10" />
    <vehicle id="W_E_2" type="standard_car" route="W_E" depart="12.0" departLane="random" departSpeed="10" />
    <vehicle id="E_W_3" type="standard_car" route="E_W" depart="15.0" departLane="random" departSpeed="10" />
    <vehicle id="E_S_4" type="standard_car" route="E_S" depart="46.0" departLane="random" departSpeed="10" />
    <vehicle id="W_E_5" type="standard_car" route="W_E" depart="49.0" departLane="random" departSpeed="10" />
    <vehicle id="S_N_6" type="standard_car" route="S_N" depart="56.0" departLane="random" departSpeed="10" />
    <vehicle id="E_W_7" type="standard_car" route="E_W" depart="75.0" departLane="random" departSpeed="10" />
    <vehicle id="S_N_8" type="standard_car" route="S_N" depart="83.0" departLane="random" departSpeed="10" />
    <vehicle id="E_S_9" type="standard_car" route="E_S" depart="85.0" departLane="random" departSpeed="10" />
    <vehicle id="S_N_10" type="standard_car" route="S_N" depart="87.0" departLane="random" departSpeed="10" />
    <vehicle id="E_W_11" type="standard_car" route="E_W" depart="89.0" departLane="random" departSpeed="10" />
    <vehicle id="N_S_12" type="standard_car" route="N_S" depart="91.0" departLane="random" departSpeed="10" />
    <vehicle id="E_N_13" type="standard_car" route="E_N" depart="91.0" departLane="random" departSpeed="10" />
    <vehicle id="N_W_14" type="standard_car" route="N_W" depart="109.0" departLane="random" departSpeed="10" />
    <vehicle id="N_S_15" type="standard_car" route="N_S" depart="111.0" departLane="random" departSpeed="10" />
    <vehicle id="W_S_16" type="standard_car" route="W_S" depart="112.0" departLane="random" departSpeed="10" />
    <vehicle id="N_W_17" type="standard_car" route="N_W" depart="114.0" departLane="random" departSpeed="10" />
    <vehicle id="N_S_18" type="standard_car" route="N_S" depart="118.0" departLane="random" departSpeed="10" />
    <vehicle id="W_E_19" type="standard_car" route="W_E" depart="121.0" departLane="random" departSpeed="10" />
    <vehicle id="W_E_20" type="standard_car" route="W_E" depart="123.0" departLane="random" departSpeed="10" />
    <vehicle id="S_N_21" type="standard_car" route="S_N" depart="124.0" departLane="random" departSpeed="10" />
    <vehicle id="W_E_22" type="standard_car" route="W_E" depart="127.0" departLane="random" departSpeed="10" />
    <vehicle id="W_E_23" type="standard_car" route="W_E" depart="129.0" departLane="random" departSpeed="10" />
    <vehicle id="W_E_24" type="standard_car" route="W_E" depart="130.0" departLane="random" departSpeed="10" />
    <vehicle id="S_E_25" type="standard_car" route="S_E" depart="135.0" departLane="random" departSpeed="10" />
    <vehicle id="E_W_26" type="standard_car" route="E_W" depart="137.0" departLane="random" departSpeed="10" />
    <vehicle id="S_N_27" type="standard_car" route="S_N" depart="140.0" departLane="random" departSpeed="10" />
    <vehicle id="W_N_28" type="standard_car" route="W_N" depart="147.0" departLane="random" departSpeed="10" />
    <vehicle id="E_W_29" type="standard_car" route="E_W" depart="155.0" departLane="random" departSpeed="10" />
    <vehicle id="N_S_30" type="standard_car" route="N_S" depart="160.0" departLane="random" departSpeed="10" />
    <vehicle id="S_E_31" type="standard_car" route="S_E" depart="161.0" departLane="random" departSpeed="10" />
    <vehicle id="S_N_32" type="standard_car" route="S_N" depart="165.0" departLane="random" departSpeed="10" />
    <vehicle id="E_W_33" type="standard_car" route="E_W" depart="167.0" departLane="random" departSpeed="10" />
    <vehicle id="N_S_34" type="standard_car" route="N_S" depart="169.0" departLane="random" departSpeed="10" />
    <vehicle id="N_S_35" type="standard_car" route="N_S" depart="170.0" departLane="random" departSpeed="10" />
    <vehicle id="W_E_36" type="standard_car" route="W_E" depart="171.0" departLane="random" departSpeed="10" />
    <vehicle id="N_S_37" type="standard_car" route="N_S" depart="173.0" departLane="random" departSpeed="10" />
    <vehicle id="N_S_38" type="standard_car" route="N_S" depart="174.0" departLane="random" departSpeed="10" />
    <vehicle id="W_E_39" type="standard_car" route="W_E" depart="175.0" departLane="random" departSpeed="10" />
    <vehicle id="N_S_40" type="standard_car" route="N_S" depart="182.0" departLane="random" departSpeed="10" />
    <vehicle id="S_N_41" type="standard_car" route="S_N" depart="183.0" departLane="random" departSpeed="10" />
    <vehicle id="S_N_42" type="standard_car" route="S_N" depart="185.0" departLane="random" departSpeed="10" />
    <vehicle id="E_S_43" type="standard_car" route="E_S" depart="190.0" departLane="random" departSpeed="10" />
    <vehicle id="S_N_44" type="standard_car" route="S_N" depart="191.0" departLane="random" departSpeed="10" />
    <vehicle id="N_W_45" type="standard_car" route="N_W" depart="192.0" departLane="random" departSpeed="10" />
    <vehicle id="S_W_46" type="standard_car" route="S_W" depart="194.0" departLane="random" departSpeed="10" />
    <vehicle id="W_E_47" type="standard_car" route="W_E" depart="196.0" departLane="random" departSpeed="10" />
    <vehicle id="W_N_48" type="standard_car" route="W_N" depart="196.0" departLane="random" departSpeed="10" />
    <vehicle id="W_E_49" type="standard_car" route="W_E" depart="198.0" departLane="random" departSpeed="10" />
    <vehicle id="W_E_50" type="standard_car" route="W_E" depart="198.0" departLane="random" departSpeed="10" />
    <vehicle id="S_N_51" type="standard_car" route="S_N" depart="202.0" departLane="random" departSpeed="10" />
    <vehicle id="S_E_52" type="standard_car" route="S_E" depart="205.0" departLane="random" departSpeed="10" />
    <vehicle id="E_W_53" type="standard_car" route="E_W" depart="207.0" departLane="random" departSpeed="10" />
    <vehicle id="W_E_54" type="standard_car" route="W_E" depart="208.0" departLane="random" departSpeed="10" />
    <vehicle id="S_N_55" type="standard_car" route="S_N" depart="208.0" departLane="random" departSpeed="10" />
    <vehicle id="E_W_56" type="standard_car" route="E_W" depart="210.0" departLane="random" departSpeed="10" />
    <vehicle id="S_N_57" type="standard_car" route="S_N" depart="212.0" departLane="random" departSpeed="10" />
    <vehicle id="N_S_58" type="standard_car" route="N_S" depart="214.0" departLane="random" departSpeed="10" />
    <vehicle id="W_E_59" type="standard_car" route="W_E" depart="216.0" departLane="random" departSpeed="10" />
    <vehicle id="S_E_60" type="standard_car" route="S_E" depart="217.0" departLane="random" departSpeed="10" />
    <vehicle id="E_W_61" type="standard_car" route="E_W" depart="219.0" departLane="random" departSpeed="10" />
    <vehicle id="W_E_62" type="standard_car" route="W_E" depart="220.0" departLane="random" departSpeed="10" />
    <vehicle id="W_E_63" type="standard_car" route="W_E" depart="221.0" departLane="random" departSpeed="10" />
    <vehicle id="N_S_64" type="standard_car" route="N_S" depart="221.0" departLane="random" departSpeed="10" />
    <vehicle id="N_S_65" type="standard_car" route="N_S" depart="222.0" departLane="random" departSpeed="10" />
    <vehicle id="S_N_66" type="standard_car" route="S_N" depart="225.0" departLane="random" departSpeed="10" />
    <vehicle id="N_E_67" type="standard_car" route="N_E" depart="225.0" departLane="random" departSpeed="10" />
    <vehicle id="E_W_68" type="standard_car" route="E_W" depart="226.0" departLane="random" departSpeed="10" />
    <vehicle id="W_E_69" type="standard_car" route="W_E" depart="228.0" departLane="random" departSpeed="10" />
    <vehicle id="E_W_70" type="standard_car" route="E_W" depart="229.0" departLane="random" departSpeed="10" />
    <vehicle id="W_E_71" type="standard_car" route="W_E" depart="229.0" departLane="random" departSpeed="10" />
    <vehicle id="S_E_72" type="standard_car" route="S_E" depart="233.0" departLane="random" departSpeed="10" />
    <vehicle id="E_W_73" type="standard_car" route="E_W" depart="234.0" departLane="random" departSpeed="10" />
    <vehicle id="E_N_74" type="standard_car" route="E_N" depart="237.0" departLane="random" departSpeed="10" />
    <vehicle id="E_S_75" type="standard_car" route="E_S" depart="238.0" departLane="random" departSpeed="10" />
    <vehicle id="E_W_76" type="standard_car" route="E_W" depart="241.0" departLane="random" departSpeed="10" />
    <vehicle id="N_W_77" type="standard_car" route="N_W" depart="242.0" departLane="random" departSpeed="10" />
    <vehicle id="S_N_78" type="standard_car" route="S_N" depart="243.0" departLane="random" departSpeed="10" />
    <vehicle id="E_S_79" type="standard_car" route="E_S" depart="244.0" departLane="random" departSpeed="10" />
    <vehicle id="W_E_80" type="standard_car" route="W_E" depart="244.0" departLane="random" departSpeed="10" />
    <vehicle id="N_S_81" type="standard_car" route="N_S" depart="253.0" departLane="random" departSpeed="10" />
    <vehicle id="S_N_82" type="standard_car" route="S_N" depart="255.0" departLane="random" departSpeed="10" />
    <vehicle id="N_W_83" type="standard_car" route="N_W" depart="256.0" departLane="random" departSpeed="10" />
    <vehicle id="S_N_84" type="standard_car" route="S_N" depart="261.0" departLane="random" departSpeed="10" />
    <vehicle id="N_W_85" type="standard_car" route="N_W" depart="263.0" departLane="random" departSpeed="10" />
    <vehicle id="E_W_86" type="standard_car" route="E_W" depart="265.0" departLane="random" departSpeed="10" />
    <vehicle id="E_S_87" type="standard_car" route="E_S" depart="265.0" departLane="random" departSpeed="10" />
    <vehicle id="S_N_88" type="standard_car" route="S_N" depart="266.0" departLane="random" departSpeed="10" />
    <vehicle id="E_W_89" type="standard_car" route="E_W" depart="267.0" departLane="random" departSpeed="10" />
    <vehicle id="E_N_90" type="standard_car" route="E_N" depart="267.0" departLane="random" departSpeed="10" />
    <vehicle id="W_E_91" type="standard_car" route="W_E" depart="267.0" departLane="random" departSpeed="10" />
    <vehicle id="S_N_92" type="standard_car" route="S_N" depart="270.0" departLane="random" departSpeed="10" />
    <vehicle id="S_N_93" type="standard_car" route="S_N" depart="271.0" departLane="random" departSpeed="10" />
    <vehicle id="S_N_94" type="standard_car" route="S_N" depart="272.0" departLane="random" departSpeed="10" />
    <vehicle id="W_E_95" type="standard_car" route="W_E" depart="273.0" departLane="random" departSpeed="10" />
    <vehicle id="W_E_96" type="standard_car" route="W_E" depart="274.0" departLane="random" departSpeed="10" />
    <vehicle id="E_W_97" type="standard_car" route="E_W" depart="277.0" departLane="random" departSpeed="10" />
    <vehicle id="W_E_98" type="standard_car" route="W_E" depart="279.0" departLane="random" departSpeed="10" />
    <vehicle id="E_W_99" type="standard_car" route="E_W" depart="279.0" departLane="random" departSpeed="10" />
    <vehicle id="S_N_100" type="standard_car" route="S_N" depart="279.0" departLane="random" departSpeed="10" />
    <vehicle id="S_N_101" type="standard_car" route="S_N" depart="280.0" departLane="random" departSpeed="10" />
    <vehicle id="E_W_102" type="standard_car" route="E_W" depart="280.0" departLane="random" departSpeed="10" />
    <vehicle id="S_N_103" type="standard_car" route="S_N" depart="281.0" departLane="random" departSpeed="10" />
    <vehicle id="S_W_104" type="standard_car" route="S_W" depart="282.0" departLane="random" departSpeed="10" />
    <vehicle id="N_S_105" type="standard_car" route="N_S" depart="284.0" departLane="random" departSpeed="10" />
    <vehicle id="N_W_106" type="standard_car" route="N_W" depart="285.0" departLane="random" departSpeed="10" />
    <vehicle id="S_N_107" type="standard_car" route="S_N" depart="285.0" departLane="random" departSpeed="10" />
    <vehicle id="N_W_108" type="standard_car" route="N_W" depart="286.0" departLane="random" departSpeed="10" />
    <vehicle id="S_N_109" type="standard_car" route="S_N" depart="289.0" departLane="random" departSpeed="10" />
    <vehicle id="N_E_110" type="standard_car" route="N_E" depart="289.0" departLane="random" departSpeed="10" />
    <vehicle id="E_W_111" type="standard_car" route="E_W" depart="292.0" departLane="random" departSpeed="10" />
    <vehicle id="W_E_112" type="standard_car" route="W_E" depart="292.0" departLane="random" departSpeed="10" />
    <vehicle id="W_E_113" type="standard_car" route="W_E" depart="295.0" departLane="random" departSpeed="10" />
    <vehicle id="S_N_114" type="standard_car" route="S_N" depart="295.0" departLane="random" departSpeed="10" />
    <vehicle id="S_N_115" type="standard_car" route="S_N" depart="296.0" departLane="random" departSpeed="10" />
    <vehicle id="W_E_116" type="standard_car" route="W_E" depart="297.0" departLane="random" departSpeed="10" />
    <vehicle id="W_E_117" type="standard_car" route="W_E" depart="300.0" departLane="random" departSpeed="10" />
    <vehicle id="N_S_118" type="standard_car" route="N_S" depart="300.0" departLane="random" departSpeed="10" />
    <vehicle id="N_S_119" type="standard_car" route="N_S" depart="301.0" departLane="random" departSpeed="10" />
    <vehicle id="E_W_120" type="standard_car" route="E_W" depart="302.0" departLane="random" departSpeed="10" />
    <vehicle id="E_W_121" type="standard_car" route="E_W" depart="303.0" departLane="random" departSpeed="10" />
    <vehicle id="W_S_122" type="standard_car" route="W_S" depart="303.0" departLane="random" departSpeed="10" />
    <vehicle id="S_N_123" type="standard_car" route="S_N" depart="307.0" departLane="random" departSpeed="10" />
    <vehicle id="N_S_124" type="standard_car" route="N_S" depart="308.0" departLane="random" departSpeed="10" />
    <vehicle id="N_S_125" type="standard_car" route="N_S" depart="309.0" departLane="random" departSpeed="10" />
    <vehicle id="S_W_126" type="standard_car" route="S_W" depart="311.0" departLane="random" departSpeed="10" />
    <vehicle id="W_E_127" type="standard_car" route="W_E" depart="312.0" departLane="random" departSpeed="10" />
    <vehicle id="S_N_128" type="standard_car" route="S_N" depart="312.0" departLane="random" departSpeed="10" />
    <vehicle id="W_S_129" type="standard_car" route="W_S" depart="313.0" departLane="random" departSpeed="10" />
    <vehicle id="E_S_130" type="standard_car" route="E_S" depart="314.0" departLane="random" departSpeed="10" />
    <vehicle id="E_N_131" type="standard_car" route="E_N" depart="314.0" departLane="random" departSpeed="10" />
    <vehicle id="W_E_132" type="standard_car" route="W_E" depart="314.0" departLane="random" departSpeed="10" />
    <vehicle id="S_N_133" type="standard_car" route="S_N" depart="316.0" departLane="random" departSpeed="10" />
    <vehicle id="N_S_134" type="standard_car" route="N_S" depart="316.0" departLane="random" departSpeed="10" />
    <vehicle id="E_W_135" type="standard_car" route="E_W" depart="317.0" departLane="random" departSpeed="10" />
    <vehicle id="S_N_136" type="standard_car" route="S_N" depart="318.0" departLane="random" departSpeed="10" />
    <vehicle id="W_N_137" type="standard_car" route="W_N" depart="320.0" departLane="random" departSpeed="10" />
    <vehicle id="E_W_138" type="standard_car" route="E_W" depart="320.0" departLane="random" departSpeed="10" />
    <vehicle id="S_N_139" type="standard_car" route="S_N" depart="320.0" departLane="random" departSpeed="10" />
    <vehicle id="S_N_140" type="standard_car" route="S_N" depart="324.0" departLane="random" departSpeed="10" />
    <vehicle id="E_W_141" type="standard_car" route="E_W" depart="328.0" departLane="random" departSpeed="10" />
    <vehicle id="N_E_142" type="standard_car" route="N_E" depart="328.0" departLane="random" departSpeed="10" />
    <vehicle id="W_E_143" type="standard_car" route="W_E" depart="329.0" departLane="random" departSpeed="10" />
    <vehicle id="W_E_144" type="standard_car" route="W_E" depart="331.0" departLane="random" departSpeed="10" />
    <vehicle id="W_E_145" type="standard_car" route="W_E" depart="332.0" departLane="random" departSpeed="10" />
    <vehicle id="N_S_146" type="standard_car" route="N_S" depart="332.0" departLane="random" departSpeed="10" />
    <vehicle id="E_N_147" type="standard_car" route="E_N" depart="334.0" departLane="random" departSpeed="10" />
    <vehicle id="S_N_148" type="standard_car" route="S_N" depart="334.0" departLane="random" departSpeed="10" />
    <vehicle id="N_S_149" type="standard_car" route="N_S" depart="337.0" departLane="random" departSpeed="10" />
    <vehicle id="N_S_150" type="standard_car" route="N_S" depart="338.0" departLane="random" departSpeed="10" />
    <vehicle id="S_N_151" type="standard_car" route="S_N" depart="339.0" departLane="random" departSpeed="10" />
    <vehicle id="W_E_152" type="standard_car" route="W_E" depart="341.0" departLane="random" departSpeed="10" />
    <vehicle id="W_E_153" type="standard_car" route="W_E" depart="341.0" departLane="random" departSpeed="10" />
    <vehicle id="W_E_154" type="standard_car" route="W_E" depart="343.0" departLane="random" departSpeed="10" />
    <vehicle id="S_N_155" type="standard_car" route="S_N" depart="345.0" departLane="random" departSpeed="10" />
    <vehicle id="W_E_156" type="standard_car" route="W_E" depart="346.0" departLane="random" departSpeed="10" />
    <vehicle id="E_N_157" type="standard_car" route="E_N" depart="346.0" departLane="random" departSpeed="10" />
    <vehicle id="S_N_158" type="standard_car" route="S_N" depart="348.0" departLane="random" departSpeed="10" />
    <vehicle id="E_W_159" type="standard_car" route="E_W" depart="351.0" departLane="random" departSpeed="10" />
    <vehicle id="E_W_160" type="standard_car" route="E_W" depart="352.0" departLane="random" departSpeed="10" />
    <vehicle id="E_W_161" type="standard_car" route="E_W" depart="352.0" departLane="random" departSpeed="10" />
    <vehicle id="W_E_162" type="standard_car" route="W_E" depart="353.0" departLane="random" departSpeed="10" />
    <vehicle id="E_W_163" type="standard_car" route="E_W" depart="354.0" departLane="random" departSpeed="10" />
    <vehicle id="E_N_164" type="standard_car" route="E_N" depart="354.0" departLane="random" departSpeed="10" />
    <vehicle id="N_S_165" type="standard_car" route="N_S" depart="360.0" departLane="random" departSpeed="10" />
    <vehicle id="N_E_166" type="standard_car" route="N_E" depart="361.0" departLane="random" departSpeed="10" />
    <vehicle id="W_N_167" type="standard_car" route="W_N" depart="364.0" departLane="random" departSpeed="10" />
    <vehicle id="N_W_168" type="standard_car" route="N_W" depart="365.0" departLane="random" departSpeed="10" />
    <vehicle id="N_S_169" type="standard_car" route="N_S" depart="367.0" departLane="random" departSpeed="10" />
    <vehicle id="S_W_170" type="standard_car" route="S_W" depart="370.0" departLane="random" departSpeed="10" />
    <vehicle id="E_W_171" type="standard_car" route="E_W" depart="371.0" departLane="random" departSpeed="10" />
    <vehicle id="W_E_172" type="standard_car" route="W_E" depart="371.0" departLane="random" departSpeed="10" />
    <vehicle id="S_N_173" type="standard_car" route="S_N" depart="372.0" departLane="random" departSpeed="10" />
    <vehicle id="E_W_174" type="standard_car" route="E_W" depart="376.0" departLane="random" departSpeed="10" />
    <vehicle id="E_W_175" type="standard_car" route="E_W" depart="377.0" departLane="random" departSpeed="10" />
    <vehicle id="E_S_176" type="standard_car" route="E_S" depart="377.0" departLane="random" departSpeed="10" />
    <vehicle id="E_W_177" type="standard_car" route="E_W" depart="378.0" departLane="random" departSpeed="10" />
    <vehicle id="W_E_178" type="standard_car" route="W_E" depart="379.0" departLane="random" departSpeed="10" />
    <vehicle id="N_S_179" type="standard_car" route="N_S" depart="379.0" departLane="random" departSpeed="10" />
    <vehicle id="W_E_180" type="standard_car" route="W_E" depart="381.0" departLane="random" departSpeed="10" />
    <vehicle id="W_E_181" type="standard_car" route="W_E" depart="381.0" departLane="random" departSpeed="10" />
    <vehicle id="E_W_182" type="standard_car" route="E_W" depart="381.0" departLane="random" departSpeed="10" />
    <vehicle id="S_N_183" type="standard_car" route="S_N" depart="381.0" departLane="random" departSpeed="10" />
    <vehicle id="E_W_184" type="standard_car" route="E_W" depart="382.0" departLane="random" departSpeed="10" />
    <vehicle id="E_S_185" type="standard_car" route="E_S" depart="382.0" departLane="random" departSpeed="10" />
    <vehicle id="S_E_186" type="standard_car" route="S_E" depart="382.0" departLane="random" departSpeed="10" />
    <vehicle id="E_W_187" type="standard_car" route="E_W" depart="383.0" departLane="random" departSpeed="10" />
    <vehicle id="E_W_188" type="standard_car" route="E_W" depart="384.0" departLane="random" departSpeed="10" />
    <vehicle id="E_W_189" type="standard_car" route="E_W" depart="384.0" departLane="random" departSpeed="10" />
    <vehicle id="S_W_190" type="standard_car" route="S_W" depart="385.0" departLane="random" departSpeed="10" />
    <vehicle id="N_S_191" type="standard_car" route="N_S" depart="387.0" departLane="random" departSpeed="10" />
    <vehicle id="W_E_192" type="standard_car" route="W_E" depart="387.0" departLane="random" departSpeed="10" />
    <vehicle id="E_W_193" type="standard_car" route="E_W" depart="388.0" departLane="random" departSpeed="10" />
    <vehicle id="N_S_194" type="standard_car" route="N_S" depart="389.0" departLane="random" departSpeed="10" />
    <vehicle id="W_E_195" type="standard_car" route="W_E" depart="390.0" departLane="random" departSpeed="10" />
    <vehicle id="N_S_196" type="standard_car" route="N_S" depart="392.0" departLane="random" departSpeed="10" />
    <vehicle id="W_N_197" type="standard_car" route="W_N" depart="393.0" departLane="random" departSpeed="10" />
    <vehicle id="N_W_198" type="standard_car" route="N_W" depart="395.0" departLane="random" departSpeed="10" />
    <vehicle id="S_N_199" type="standard_car" route="S_N" depart="398.0" departLane="random" departSpeed="10" />
    <vehicle id="E_W_200" type="standard_car" route="E_W" depart="398.0" departLane="random" departSpeed="10" />
    <vehicle id="S_N_201" type="standard_car" route="S_N" depart="399.0" departLane="random" departSpeed="10" />
    <vehicle id="W_E_202" type="standard_car" route="W_E" depart="399.0" departLane="random" departSpeed="10" />
    <vehicle id="W_E_203" type="standard_car" route="W_E" depart="403.0" departLane="random" departSpeed="10" />
    <vehicle id="N_S_204" type="standard_car" route="N_S" depart="404.0" departLane="random" departSpeed="10" />
    <vehicle id="N_S_205" type="standard_car" route="N_S" depart="404.0" departLane="random" departSpeed="10" />
    <vehicle id="N_W_206" type="standard_car" route="N_W" depart="405.0" departLane="random" departSpeed="10" />
    <vehicle id="W_E_207" type="standard_car" route="W_E" depart="406.0" departLane="random" departSpeed="10" />
    <vehicle id="S_N_208" type="standard_car" route="S_N" depart="407.0" departLane="random" departSpeed="10" />
    <vehicle id="S_N_209" type="standard_car" route="S_N" depart="408.0" departLane="random" departSpeed="10" />
    <vehicle id="N_S_210" type="standard_car" route="N_S" depart="408.0" departLane="random" departSpeed="10" />
    <vehicle id="S_N_211" type="standard_car" route="S_N" depart="411.0" departLane="random" departSpeed="10" />
    <vehicle id="N_W_212" type="standard_car" route="N_W" depart="412.0" departLane="random" departSpeed="10" />
    <vehicle id="S_N_213" type="standard_car" route="S_N" depart="413.0" departLane="random" departSpeed="10" />
    <vehicle id="N_S_214" type="standard_car" route="N_S" depart="413.0" departLane="random" departSpeed="10" />
    <vehicle id="W_E_215" type="standard_car" route="W_E" depart="414.0" departLane="random" departSpeed="10" />
    <vehicle id="E_W_216" type="standard_car" route="E_W" depart="414.0" departLane="random" departSpeed="10" />
    <vehicle id="W_E_217" type="standard_car" route="W_E" depart="420.0" departLane="random" departSpeed="10" />
    <vehicle id="W_E_218" type="standard_car" route="W_E" depart="421.0" departLane="random" departSpeed="10" />
    <vehicle id="N_S_219" type="standard_car" route="N_S" depart="421.0" departLane="random" departSpeed="10" />
    <vehicle id="N_S_220" type="standard_car" route="N_S" depart="423.0" departLane="random" departSpeed="10" />
    <vehicle id="S_N_221" type="standard_car" route="S_N" depart="424.0" departLane="random" departSpeed="10" />
    <vehicle id="W_E_222" type="standard_car" route="W_E" depart="425.0" departLane="random" departSpeed="10" />
    <vehicle id="W_E_223" type="standard_car" route="W_E" depart="425.0" departLane="random" departSpeed="10" />
    <vehicle id="S_N_224" type="standard_car" route="S_N" depart="425.0" departLane="random" departSpeed="10" />
    <vehicle id="E_W_225" type="standard_car" route="E_W" depart="426.0" departLane="random" departSpeed="10" />
    <vehicle id="W_E_226" type="standard_car" route="W_E" depart="426.0" departLane="random" departSpeed="10" />
    <vehicle id="N_S_227" type="standard_car" route="N_S" depart="427.0" departLane="random" departSpeed="10" />
    <vehicle id="E_N_228" type="standard_car" route="E_N" depart="427.0" departLane="random" departSpeed="10" />
    <vehicle id="E_W_229" type="standard_car" route="E_W" depart="427.0" departLane="random" departSpeed="10" />
    <vehicle id="S_N_230" type="standard_car" route="S_N" depart="428.0" departLane="random" departSpeed="10" />
    <vehicle id="N_S_231" type="standard_car" route="N_S" depart="428.0" departLane="random" departSpeed="10" />
    <vehicle id="E_N_232" type="standard_car" route="E_N" depart="431.0" departLane="random" departSpeed="10" />
    <vehicle id="S_N_233" type="standard_car" route="S_N" depart="432.0" departLane="random" departSpeed="10" />
    <vehicle id="W_S_234" type="standard_car" route="W_S" depart="433.0" departLane="random" departSpeed="10" />
    <vehicle id="N_S_235" type="standard_car" route="N_S" depart="435.0" departLane="random" departSpeed="10" />
    <vehicle id="E_W_236" type="standard_car" route="E_W" depart="435.0" departLane="random" departSpeed="10" />
    <vehicle id="W_E_237" type="standard_car" route="W_E" depart="435.0" departLane="random" departSpeed="10" />
    <vehicle id="W_S_238" type="standard_car" route="W_S" depart="436.0" departLane="random" departSpeed="10" />
    <vehicle id="S_N_239" type="standard_car" route="S_N" depart="437.0" departLane="random" departSpeed="10" />
    <vehicle id="N_S_240" type="standard_car" route="N_S" depart="437.0" departLane="random" departSpeed="10" />
    <vehicle id="N_S_241" type="standard_car" route="N_S" depart="438.0" departLane="random" departSpeed="10" />
    <vehicle id="E_W_242" type="standard_car" route="E_W" depart="439.0" departLane="random" departSpeed="10" />
    <vehicle id="S_N_243" type="standard_car" route="S_N" depart="441.0" departLane="random" departSpeed="10" />
    <vehicle id="W_E_244" type="standard_car" route="W_E" depart="441.0" departLane="random" departSpeed="10" />
    <vehicle id="S_N_245" type="standard_car" route="S_N" depart="441.0" departLane="random" departSpeed="10" />
    <vehicle id="E_W_246" type="standard_car" route="E_W" depart="442.0" departLane="random" departSpeed="10" />
    <vehicle id="E_W_247" type="standard_car" route="E_W" depart="442.0" departLane="random" departSpeed="10" />
    <vehicle id="S_N_248" type="standard_car" route="S_N" depart="444.0" departLane="random" departSpeed="10" />
    <vehicle id="S_W_249" type="standard_car" route="S_W" depart="446.0" departLane="random" departSpeed="10" />
    <vehicle id="N_S_250" type="emergency_car" route="N_S" depart="447.0" departLane="random" departSpeed="10" />
    <vehicle id="E_W_251" type="standard_car" route="E_W" depart="448.0" departLane="random" departSpeed="10" />
    <vehicle id="S_N_252" type="standard_car" route="S_N" depart="450.0" departLane="random" departSpeed="10" />
    <vehicle id="E_W_253" type="standard_car" route="E_W" depart="451.0" departLane="random" departSpeed="10" />
    <vehicle id="E_W_254" type="standard_car" route="E_W" depart="451.0" departLane="random" departSpeed="10" />
    <vehicle id="N_S_255" type="standard_car" route="N_S" depart="451.0" departLane="random" departSpeed="10" />
    <vehicle id="S_N_256" type="standard_car" route="S_N" depart="452.0" departLane="random" departSpeed="10" />
    <vehicle id="N_S_257" type="standard_car" route="N_S" depart="453.0" departLane="random" departSpeed="10" />
    <vehicle id="N_S_258" type="standard_car" route="N_S" depart="455.0" departLane="random" departSpeed="10" />